2024-09-23 13:05:55: case.setup starting 2399613.casper-pbs
 ---------------------------------------------------
2024-09-23 13:06:03: case.setup success 2399613.casper-pbs
 ---------------------------------------------------
2024-09-23 13:06:20: case.build starting 
 ---------------------------------------------------
2024-09-23 13:17:44: case.build error 
ERROR: BUILD FAIL: cice.buildlib failed, cat /glade/derecho/scratch/geraint/NilsFSAdapt/bld/ice.bldlog.240923-130620
 ---------------------------------------------------
2024-09-23 13:21:31: case.build starting 
 ---------------------------------------------------
2024-09-23 13:24:43: case.build error 
ERROR: BUILD FAIL: cice.buildlib failed, cat /glade/derecho/scratch/geraint/NilsFSAdapt/bld/ice.bldlog.240923-132131
 ---------------------------------------------------
2024-09-23 13:25:41: case.build starting 
 ---------------------------------------------------
2024-09-23 13:29:59: case.build success 
 ---------------------------------------------------
2024-09-23 13:30:37: case.submit starting 6168284.desched1
 ---------------------------------------------------
2024-09-23 13:30:37: case.submit success 6168284.desched1
 ---------------------------------------------------
2024-09-23 13:31:36: case.run starting 6168283.desched1
 ---------------------------------------------------
2024-09-23 13:31:52: model execution starting 6168283.desched1
 ---------------------------------------------------
2024-09-23 13:37:57: build.clean starting 
 ---------------------------------------------------
2024-09-23 13:38:01: build.clean success 
 ---------------------------------------------------
2024-09-23 13:38:26: case.build starting 
 ---------------------------------------------------
2024-09-23 13:38:56: case.build error 

 ---------------------------------------------------
2024-09-23 13:40:05: model execution success 6168283.desched1
 ---------------------------------------------------
2024-09-23 13:40:05: case.run success 6168283.desched1
 ---------------------------------------------------
2024-09-23 13:40:46: st_archive starting 6168284.desched1
 ---------------------------------------------------
2024-09-23 13:40:56: st_archive success 6168284.desched1
 ---------------------------------------------------
2024-09-23 14:22:35: build.clean starting 
 ---------------------------------------------------
2024-09-23 14:22:38: build.clean success 
 ---------------------------------------------------
2024-09-23 14:22:48: case.build starting 
 ---------------------------------------------------
2024-09-23 14:23:34: case.build error 
ERROR: BUILD FAIL: cice.buildlib failed, cat /glade/derecho/scratch/geraint/NilsFSAdapt/bld/ice.bldlog.240923-142248
 ---------------------------------------------------
2024-09-23 14:24:40: case.build starting 
 ---------------------------------------------------
2024-09-23 14:28:04: case.build error 
ERROR: BUILD FAIL: cice.buildlib failed, cat /glade/derecho/scratch/geraint/NilsFSAdapt/bld/ice.bldlog.240923-142441
 ---------------------------------------------------
2024-09-23 14:28:38: case.build starting 
 ---------------------------------------------------
2024-09-23 14:31:24: case.build success 
 ---------------------------------------------------
2024-09-23 14:31:42: case.submit starting 6168642.desched1
 ---------------------------------------------------
2024-09-23 14:31:42: case.submit success 6168642.desched1
 ---------------------------------------------------
2024-09-23 14:32:04: case.run starting 6168641.desched1
 ---------------------------------------------------
2024-09-23 14:32:15: model execution starting 6168641.desched1
 ---------------------------------------------------
2024-09-23 14:37:17: build.clean starting 
 ---------------------------------------------------
2024-09-23 14:37:20: build.clean success 
 ---------------------------------------------------
2024-09-23 14:38:18: case.build starting 
 ---------------------------------------------------
2024-09-23 14:43:56: case.build success 
 ---------------------------------------------------
2024-09-23 14:44:26: case.submit starting 6168889.desched1
 ---------------------------------------------------
2024-09-23 14:44:26: case.submit success 6168889.desched1
 ---------------------------------------------------
2024-09-23 14:45:17: case.submit starting 6168894.desched1
 ---------------------------------------------------
2024-09-23 14:45:17: case.submit success 6168894.desched1
 ---------------------------------------------------
2024-09-23 14:46:32: case.run starting 6168893.desched1
 ---------------------------------------------------
2024-09-23 14:47:21: case.submit starting 6168907.desched1
 ---------------------------------------------------
2024-09-23 14:47:21: case.submit success 6168907.desched1
 ---------------------------------------------------
2024-09-23 14:53:34: case.run starting 6168906.desched1
 ---------------------------------------------------
2024-09-23 14:53:51: model execution starting 6168906.desched1
 ---------------------------------------------------
2024-09-23 15:11:11: build.clean starting 
 ---------------------------------------------------
2024-09-23 15:11:15: build.clean success 
 ---------------------------------------------------
2024-09-23 15:11:21: case.build starting 
 ---------------------------------------------------
2024-09-23 15:17:42: case.build success 
 ---------------------------------------------------
2024-09-23 15:18:22: case.submit starting 6169118.desched1
 ---------------------------------------------------
2024-09-23 15:18:22: case.submit success 6169118.desched1
 ---------------------------------------------------
2024-09-23 15:30:26: case.run starting 6169117.desched1
 ---------------------------------------------------
2024-09-23 15:30:40: model execution starting 6169117.desched1
 ---------------------------------------------------
2024-09-23 15:43:51: build.clean starting 
 ---------------------------------------------------
2024-09-23 15:44:18: build.clean success 
 ---------------------------------------------------
2024-09-23 15:44:45: case.build starting 
 ---------------------------------------------------
2024-09-23 15:51:06: case.build success 
 ---------------------------------------------------
2024-09-23 15:52:07: case.submit starting 6169315.desched1
 ---------------------------------------------------
2024-09-23 15:52:07: case.submit success 6169315.desched1
 ---------------------------------------------------
2024-09-23 16:05:33: case.run starting 6169314.desched1
 ---------------------------------------------------
2024-09-23 16:05:42: model execution starting 6169314.desched1
 ---------------------------------------------------
2024-09-23 16:10:07: build.clean starting 
 ---------------------------------------------------
2024-09-23 16:10:10: build.clean success 
 ---------------------------------------------------
2024-09-23 16:10:30: case.build starting 
 ---------------------------------------------------
2024-09-23 16:17:00: case.build success 
 ---------------------------------------------------
2024-09-23 16:19:06: case.submit starting 6169425.desched1
 ---------------------------------------------------
2024-09-23 16:19:06: case.submit success 6169425.desched1
 ---------------------------------------------------
2024-09-23 16:22:38: case.run starting 6169424.desched1
 ---------------------------------------------------
2024-09-23 16:22:51: model execution starting 6169424.desched1
 ---------------------------------------------------
2024-09-23 16:42:45: build.clean starting 
 ---------------------------------------------------
2024-09-23 16:42:50: build.clean success 
 ---------------------------------------------------
2024-09-23 16:45:49: case.build starting 
 ---------------------------------------------------
2024-09-23 16:47:00: case.build error 
ERROR: BUILD FAIL: cice.buildlib failed, cat /glade/derecho/scratch/geraint/NilsFSAdapt/bld/ice.bldlog.240923-164549
 ---------------------------------------------------
2024-09-23 16:50:32: case.build starting 
 ---------------------------------------------------
2024-09-23 16:56:25: case.build success 
 ---------------------------------------------------
2024-09-23 16:57:30: case.submit starting 6169590.desched1
 ---------------------------------------------------
2024-09-23 16:57:30: case.submit success 6169590.desched1
 ---------------------------------------------------
2024-09-23 16:58:01: case.run starting 6169589.desched1
 ---------------------------------------------------
2024-09-23 16:58:18: model execution starting 6169589.desched1
 ---------------------------------------------------
2024-09-23 17:07:02: model execution success 6169589.desched1
 ---------------------------------------------------
2024-09-23 17:07:02: case.run success 6169589.desched1
 ---------------------------------------------------
2024-09-23 17:07:54: st_archive starting 6169590.desched1
 ---------------------------------------------------
2024-09-23 17:08:05: st_archive success 6169590.desched1
 ---------------------------------------------------
2024-09-23 17:40:46: build.clean starting 
 ---------------------------------------------------
2024-09-23 17:40:50: build.clean success 
 ---------------------------------------------------
2024-09-23 17:41:46: case.build starting 
 ---------------------------------------------------
2024-09-23 17:42:56: case.build error 
ERROR: BUILD FAIL: cice.buildlib failed, cat /glade/derecho/scratch/geraint/NilsFSAdapt/bld/ice.bldlog.240923-174147
 ---------------------------------------------------
2024-09-23 17:44:17: case.build starting 
 ---------------------------------------------------
2024-09-23 17:50:11: case.build success 
 ---------------------------------------------------
2024-09-23 17:51:07: case.submit starting 6169829.desched1
 ---------------------------------------------------
2024-09-23 17:51:07: case.submit success 6169829.desched1
 ---------------------------------------------------
2024-09-23 17:52:11: case.run starting 6169827.desched1
 ---------------------------------------------------
2024-09-23 17:52:21: model execution starting 6169827.desched1
 ---------------------------------------------------
2024-09-23 17:59:25: build.clean starting 
 ---------------------------------------------------
2024-09-23 17:59:27: build.clean success 
 ---------------------------------------------------
2024-09-23 17:59:31: case.build starting 
 ---------------------------------------------------
2024-09-23 18:06:08: case.build success 
 ---------------------------------------------------
2024-09-23 18:07:37: case.submit starting 6169887.desched1
 ---------------------------------------------------
2024-09-23 18:07:37: case.submit success 6169887.desched1
 ---------------------------------------------------
2024-09-23 18:17:10: case.run starting 6169886.desched1
 ---------------------------------------------------
2024-09-23 18:17:18: model execution starting 6169886.desched1
 ---------------------------------------------------
2024-09-23 20:18:32: model execution success 6169886.desched1
 ---------------------------------------------------
2024-09-23 20:18:32: case.run success 6169886.desched1
 ---------------------------------------------------
2024-09-23 20:25:05: st_archive starting 6169887.desched1
 ---------------------------------------------------
2024-09-23 20:25:14: st_archive success 6169887.desched1
 ---------------------------------------------------
2024-09-23 21:01:28: build.clean starting 
 ---------------------------------------------------
2024-09-23 21:01:34: build.clean success 
 ---------------------------------------------------
2024-09-23 21:02:14: build.clean starting 
 ---------------------------------------------------
2024-09-23 21:02:16: build.clean success 
 ---------------------------------------------------
2024-09-23 21:02:19: case.build starting 
 ---------------------------------------------------
2024-09-23 21:09:21: case.build success 
 ---------------------------------------------------
2024-09-23 21:09:56: case.submit starting 6170895.desched1
 ---------------------------------------------------
2024-09-23 21:09:56: case.submit success 6170895.desched1
 ---------------------------------------------------
2024-09-23 21:15:49: case.run starting 6170894.desched1
 ---------------------------------------------------
2024-09-23 21:15:58: model execution starting 6170894.desched1
 ---------------------------------------------------
2024-09-23 21:23:54: model execution success 6170894.desched1
 ---------------------------------------------------
2024-09-23 21:23:54: case.run success 6170894.desched1
 ---------------------------------------------------
2024-09-23 21:24:39: st_archive starting 6170895.desched1
 ---------------------------------------------------
2024-09-23 21:24:46: st_archive success 6170895.desched1
 ---------------------------------------------------
2024-09-24 10:26:13: build.clean starting 
 ---------------------------------------------------
2024-09-24 10:26:16: build.clean success 
 ---------------------------------------------------
2024-09-24 10:26:58: case.build starting 
 ---------------------------------------------------
2024-09-24 10:28:56: case.build error 

 ---------------------------------------------------
2024-09-24 10:33:02: case.build starting 
 ---------------------------------------------------
2024-09-24 10:38:31: case.build success 
 ---------------------------------------------------
2024-09-24 10:43:36: case.submit starting 6176648.desched1
 ---------------------------------------------------
2024-09-24 10:43:36: case.submit success 6176648.desched1
 ---------------------------------------------------
2024-09-24 11:56:33: build.clean starting 
 ---------------------------------------------------
2024-09-24 11:56:35: build.clean success 
 ---------------------------------------------------
2024-09-24 11:56:43: case.build starting 
 ---------------------------------------------------
2024-09-24 11:57:10: case.build error 
ERROR: BUILD FAIL: cice.buildlib failed, cat /glade/derecho/scratch/geraint/NilsFSAdapt/bld/ice.bldlog.240924-115643
 ---------------------------------------------------
2024-09-24 11:58:38: case.build starting 
 ---------------------------------------------------
2024-09-24 11:59:06: case.build error 
ERROR: BUILD FAIL: cice.buildlib failed, cat /glade/derecho/scratch/geraint/NilsFSAdapt/bld/ice.bldlog.240924-115838
 ---------------------------------------------------
2024-09-24 12:00:42: case.build starting 
 ---------------------------------------------------
2024-09-24 12:01:13: case.build error 
ERROR: BUILD FAIL: cice.buildlib failed, cat /glade/derecho/scratch/geraint/NilsFSAdapt/bld/ice.bldlog.240924-120043
 ---------------------------------------------------
2024-09-24 12:05:35: case.build starting 
 ---------------------------------------------------
2024-09-24 12:05:54: case.build error 
ERROR: BUILD FAIL: cice.buildlib failed, cat /glade/derecho/scratch/geraint/NilsFSAdapt/bld/ice.bldlog.240924-120535
 ---------------------------------------------------
2024-09-24 12:06:59: build.clean starting 
 ---------------------------------------------------
2024-09-24 12:07:01: build.clean success 
 ---------------------------------------------------
2024-09-24 12:07:04: case.build starting 
 ---------------------------------------------------
2024-09-24 12:07:48: case.build error 
ERROR: BUILD FAIL: cice.buildlib failed, cat /glade/derecho/scratch/geraint/NilsFSAdapt/bld/ice.bldlog.240924-120704
 ---------------------------------------------------
2024-09-24 12:10:07: case.build starting 
 ---------------------------------------------------
2024-09-24 12:13:34: case.build error 
ERROR: BUILD FAIL: cice.buildlib failed, cat /glade/derecho/scratch/geraint/NilsFSAdapt/bld/ice.bldlog.240924-121007
 ---------------------------------------------------
2024-09-24 12:17:20: case.build starting 
 ---------------------------------------------------
2024-09-24 12:17:38: case.build error 
ERROR: BUILD FAIL: cice.buildlib failed, cat /glade/derecho/scratch/geraint/NilsFSAdapt/bld/ice.bldlog.240924-121720
 ---------------------------------------------------
2024-09-24 12:19:31: case.build starting 
 ---------------------------------------------------
2024-09-24 12:21:16: case.build success 
 ---------------------------------------------------
2024-09-24 12:21:36: case.submit starting 6177014.desched1
 ---------------------------------------------------
2024-09-24 12:21:36: case.submit success 6177014.desched1
 ---------------------------------------------------
2024-09-24 13:53:33: case.run starting 6177013.desched1
 ---------------------------------------------------
2024-09-24 13:53:38: model execution starting 6177013.desched1
 ---------------------------------------------------
2024-09-24 14:00:28: build.clean starting 
 ---------------------------------------------------
2024-09-24 14:00:30: build.clean success 
 ---------------------------------------------------
2024-09-24 14:00:56: case.build starting 
 ---------------------------------------------------
2024-09-24 14:01:19: case.build error 
ERROR: BUILD FAIL: cice.buildlib failed, cat /glade/derecho/scratch/geraint/NilsFSAdapt/bld/ice.bldlog.240924-140056
 ---------------------------------------------------
2024-09-24 14:02:37: case.build starting 
 ---------------------------------------------------
2024-09-24 14:05:37: case.build error 
ERROR: BUILD FAIL: cice.buildlib failed, cat /glade/derecho/scratch/geraint/NilsFSAdapt/bld/ice.bldlog.240924-140237
 ---------------------------------------------------
2024-09-24 14:06:20: case.build starting 
 ---------------------------------------------------
2024-09-24 14:06:35: case.build error 
ERROR: BUILD FAIL: cice.buildlib failed, cat /glade/derecho/scratch/geraint/NilsFSAdapt/bld/ice.bldlog.240924-140620
 ---------------------------------------------------
2024-09-24 14:07:33: case.build starting 
 ---------------------------------------------------
2024-09-24 14:09:15: case.build success 
 ---------------------------------------------------
2024-09-24 14:10:28: build.clean starting 
 ---------------------------------------------------
2024-09-24 14:10:30: build.clean success 
 ---------------------------------------------------
2024-09-24 14:10:38: case.build starting 
 ---------------------------------------------------
2024-09-24 14:15:09: case.build success 
 ---------------------------------------------------
2024-09-24 14:15:21: case.submit starting 6177519.desched1
 ---------------------------------------------------
2024-09-24 14:15:21: case.submit success 6177519.desched1
 ---------------------------------------------------
2024-09-24 14:20:07: case.run starting 6177518.desched1
 ---------------------------------------------------
2024-09-24 14:20:11: model execution starting 6177518.desched1
 ---------------------------------------------------
2024-09-24 14:26:33: build.clean starting 
 ---------------------------------------------------
2024-09-24 14:26:35: build.clean success 
 ---------------------------------------------------
2024-09-24 14:26:42: case.build starting 
 ---------------------------------------------------
2024-09-24 14:31:26: case.build success 
 ---------------------------------------------------
2024-09-24 14:31:56: case.submit starting 6177602.desched1
 ---------------------------------------------------
2024-09-24 14:31:56: case.submit success 6177602.desched1
 ---------------------------------------------------
2024-09-24 14:33:09: case.run starting 6177601.desched1
 ---------------------------------------------------
2024-09-24 14:33:12: model execution starting 6177601.desched1
 ---------------------------------------------------
2024-09-24 14:40:08: build.clean starting 
 ---------------------------------------------------
2024-09-24 14:40:10: build.clean success 
 ---------------------------------------------------
2024-09-24 14:40:21: case.build starting 
 ---------------------------------------------------
2024-09-24 14:45:02: case.build success 
 ---------------------------------------------------
2024-09-24 14:45:16: case.submit starting 6177678.desched1
 ---------------------------------------------------
2024-09-24 14:45:16: case.submit success 6177678.desched1
 ---------------------------------------------------
2024-09-24 14:49:12: case.run starting 6177677.desched1
 ---------------------------------------------------
2024-09-24 14:49:16: model execution starting 6177677.desched1
 ---------------------------------------------------
2024-09-24 14:54:03: build.clean starting 
 ---------------------------------------------------
2024-09-24 14:54:05: build.clean success 
 ---------------------------------------------------
2024-09-24 14:54:09: case.build starting 
 ---------------------------------------------------
2024-09-24 14:59:03: case.build success 
 ---------------------------------------------------
2024-09-24 14:59:56: case.submit starting 6177749.desched1
 ---------------------------------------------------
2024-09-24 14:59:56: case.submit success 6177749.desched1
 ---------------------------------------------------
2024-09-24 15:53:32: build.clean starting 
 ---------------------------------------------------
2024-09-24 15:53:34: build.clean success 
 ---------------------------------------------------
2024-09-24 15:54:23: case.build starting 
 ---------------------------------------------------
2024-09-24 15:59:44: case.build success 
 ---------------------------------------------------
2024-09-24 16:00:37: case.submit starting 6178333.desched1
 ---------------------------------------------------
2024-09-24 16:00:37: case.submit success 6178333.desched1
 ---------------------------------------------------
2024-09-24 19:09:23: case.run starting 6178332.desched1
 ---------------------------------------------------
2024-09-24 19:09:29: model execution starting 6178332.desched1
 ---------------------------------------------------
2024-09-24 19:14:39: model execution success 6178332.desched1
 ---------------------------------------------------
2024-09-24 19:14:39: case.run success 6178332.desched1
 ---------------------------------------------------
2024-09-24 19:14:59: st_archive starting 6178333.desched1
 ---------------------------------------------------
2024-09-24 19:15:03: st_archive success 6178333.desched1
 ---------------------------------------------------
2024-09-24 20:26:25: case.submit starting 6179418.desched1
 ---------------------------------------------------
2024-09-24 20:26:25: case.submit success 6179418.desched1
 ---------------------------------------------------
2024-09-24 20:27:28: case.run starting 6179417.desched1
 ---------------------------------------------------
2024-09-24 20:27:33: model execution starting 6179417.desched1
 ---------------------------------------------------
2024-09-24 23:40:29: model execution success 6179417.desched1
 ---------------------------------------------------
2024-09-24 23:40:29: case.run success 6179417.desched1
 ---------------------------------------------------
2024-09-24 23:41:27: st_archive starting 6179418.desched1
 ---------------------------------------------------
2024-09-24 23:41:31: st_archive success 6179418.desched1
 ---------------------------------------------------
2024-09-25 14:28:29: build.clean starting 
 ---------------------------------------------------
2024-09-25 14:28:32: build.clean success 
 ---------------------------------------------------
2024-09-25 14:28:48: case.build starting 
 ---------------------------------------------------
2024-09-25 14:33:47: case.build success 
 ---------------------------------------------------
2024-09-25 14:43:05: case.submit starting 6190054.desched1
 ---------------------------------------------------
2024-09-25 14:43:05: case.submit success 6190054.desched1
 ---------------------------------------------------
2024-09-25 14:59:21: build.clean starting 
 ---------------------------------------------------
2024-09-25 14:59:23: build.clean success 
 ---------------------------------------------------
2024-09-25 14:59:30: case.build starting 
 ---------------------------------------------------
2024-09-25 15:04:39: case.build success 
 ---------------------------------------------------
2024-09-25 15:22:04: case.submit starting 6190199.desched1
 ---------------------------------------------------
2024-09-25 15:22:04: case.submit success 6190199.desched1
 ---------------------------------------------------
2024-09-26 03:29:18: case.run starting 6190198.desched1
 ---------------------------------------------------
2024-09-26 03:29:31: model execution starting 6190198.desched1
 ---------------------------------------------------
2024-09-26 03:36:56: model execution success 6190198.desched1
 ---------------------------------------------------
2024-09-26 03:36:56: case.run success 6190198.desched1
 ---------------------------------------------------
2024-09-26 03:37:25: st_archive starting 6190199.desched1
 ---------------------------------------------------
2024-09-26 03:37:31: st_archive success 6190199.desched1
 ---------------------------------------------------
2024-09-26 10:23:22: build.clean starting 
 ---------------------------------------------------
2024-09-26 10:23:25: build.clean success 
 ---------------------------------------------------
2024-09-26 10:23:29: case.build starting 
 ---------------------------------------------------
2024-09-26 10:29:29: case.build success 
 ---------------------------------------------------
2024-09-26 10:31:05: case.submit starting 6196529.desched1
 ---------------------------------------------------
2024-09-26 10:31:05: case.submit success 6196529.desched1
 ---------------------------------------------------
2024-09-26 11:31:21: build.clean starting 
 ---------------------------------------------------
2024-09-26 11:31:34: build.clean success 
 ---------------------------------------------------
2024-09-26 11:31:51: setup.clean starting 2552205.casper-pbs
 ---------------------------------------------------
2024-09-26 11:31:52: setup.clean success 2552205.casper-pbs
 ---------------------------------------------------
2024-09-26 11:31:56: case.setup starting 2552205.casper-pbs
 ---------------------------------------------------
2024-09-26 11:32:02: case.setup success 2552205.casper-pbs
 ---------------------------------------------------
2024-09-26 11:32:30: case.build starting 
 ---------------------------------------------------
2024-09-26 11:44:18: case.build success 
 ---------------------------------------------------
2024-09-26 11:46:05: case.submit starting 6198944.desched1
 ---------------------------------------------------
2024-09-26 11:46:05: case.submit success 6198944.desched1
 ---------------------------------------------------
2024-09-26 14:47:48: case.run starting 6198942.desched1
 ---------------------------------------------------
2024-09-26 14:47:55: model execution starting 6198942.desched1
 ---------------------------------------------------
2024-09-26 14:52:53: model execution success 6198942.desched1
 ---------------------------------------------------
2024-09-26 14:52:53: case.run success 6198942.desched1
 ---------------------------------------------------
2024-09-26 14:53:12: st_archive starting 6198944.desched1
 ---------------------------------------------------
2024-09-26 14:53:18: st_archive success 6198944.desched1
 ---------------------------------------------------
2024-09-26 16:49:03: build.clean starting 
 ---------------------------------------------------
2024-09-26 16:49:06: build.clean success 
 ---------------------------------------------------
2024-09-26 16:49:10: case.build starting 
 ---------------------------------------------------
2024-09-26 16:52:23: case.build error 

 ---------------------------------------------------
2024-09-26 16:58:52: case.build starting 
 ---------------------------------------------------
2024-09-26 17:02:22: case.build error 
ERROR: BUILD FAIL: cice.buildlib failed, cat /glade/derecho/scratch/geraint/NilsFSAdapt/bld/ice.bldlog.240926-165852
 ---------------------------------------------------
2024-09-26 17:03:27: case.build starting 
 ---------------------------------------------------
2024-09-26 17:05:43: case.build success 
 ---------------------------------------------------
2024-09-26 17:06:45: case.submit starting 6202825.desched1
 ---------------------------------------------------
2024-09-26 17:06:45: case.submit success 6202825.desched1
 ---------------------------------------------------
2024-09-26 17:13:07: case.run starting 6202824.desched1
 ---------------------------------------------------
2024-09-26 17:13:18: model execution starting 6202824.desched1
 ---------------------------------------------------
2024-09-26 17:18:36: model execution success 6202824.desched1
 ---------------------------------------------------
2024-09-26 17:18:36: case.run success 6202824.desched1
 ---------------------------------------------------
2024-09-26 17:24:57: case.submit starting 6202891.desched1
 ---------------------------------------------------
2024-09-26 17:24:57: case.submit success 6202891.desched1
 ---------------------------------------------------
2024-09-26 17:25:21: case.run starting 6202890.desched1
 ---------------------------------------------------
2024-09-26 17:25:22: st_archive starting 6202825.desched1
 ---------------------------------------------------
2024-09-26 17:25:30: st_archive success 6202825.desched1
 ---------------------------------------------------
2024-09-26 17:25:30: model execution starting 6202890.desched1
 ---------------------------------------------------
2024-09-26 17:25:43: model execution success 6202890.desched1